23
-541.742992 6memclf lactam f1new2  runpoint 1  runisomer  47
C -0.744192 1.770290 0.209609
C -1.204252 0.318208 0.172925
C -0.440237 -0.401524 -0.967262
C 1.082072 -0.303992 -1.005427
C 1.390569 1.230339 -1.084314
C 0.791875 2.082227 0.035528
H -1.449541 2.259785 -0.575148
H -0.910218 2.117191 1.260894
H 1.465814 -0.754502 -1.939132
H 2.484423 1.425325 -1.078506
H 1.108232 1.614859 -2.032462
H 1.341374 1.834724 1.031812
H 1.011649 3.270705 -0.040759
H -0.948769 0.054552 -1.734935
O -2.379567 0.046826 0.377462
C 1.664761 -1.184429 0.167188
H 1.313958 -2.238845 0.130895
H 2.696046 -1.176721 0.374255
C 1.206716 -0.607794 1.636789
N -0.154922 -0.716787 1.486295
H 1.656740 -1.459963 2.352486
H 1.696547 0.365820 1.821417
F -0.903810 -1.714877 -1.133938
